Circuit: * C:\Users\sacmitch\Desktop\Image Reject Filter v2\Filter v2 - v1 w available values.asc


Date: Sun Apr 14 17:18:44 2019
Total elapsed time: 0.030 seconds.

tnom = 27
temp = 27
method = trap
totiter = 0
traniter = 0
tranpoints = 0
accept = 0
rejected = 0
matrix size = 5
fillins = 1
solver = Normal

