Circuit: * C:\Users\sacmitch\Desktop\Image Reject Filter v3\Filter v3 - v2 tolerance test.asc


Date: Sun Apr 14 17:49:54 2019
Total elapsed time: 0.017 seconds.

tnom = 27
temp = 27
method = trap
totiter = 0
traniter = 0
tranpoints = 0
accept = 0
rejected = 0
matrix size = 5
fillins = 1
solver = Normal

