
**** 01/19/20 13:25:35 ******* PSpice Lite (March 2016) ******* ID# 10813 ****

 ** Profile: "SCHEMATIC1-sim1"  [ c:\users\lfbarrag\documents\slugsat\github\schematics_pcbs\lt\29.4mhz low-pass filter\29mhz-lpf-psp


 ****     CIRCUIT DESCRIPTION


******************************************************************************




** Creating circuit file "sim1.cir" 
** WARNING: THIS AUTOMATICALLY GENERATED FILE MAY BE OVERWRITTEN BY SUBSEQUENT SIMULATIONS

*Libraries: 
* Profile Libraries :
* Local Libraries :
* From [PSPICE NETLIST] section of C:\Users\lfbarrag\cdssetup\OrCAD_PSpice\17.2.0\PSpice.ini file:
.lib "nomd.lib" 

*Analysis directives: 
.AC DEC 10000 15E6 80E6
.OPTIONS ADVCONV
.PROBE64 V(alias(*)) I(alias(*)) W(alias(*)) D(alias(*)) NOISE(alias(*)) 
.INC "..\SCHEMATIC1.net" 



**** INCLUDING SCHEMATIC1.net ****
* source 29MHZ-LPF
V_V1         N00123 0 DC 0Vdc AC 1Vac 
C_C1         0 N00123 Cbreak 1n 
C_C2         0 N00119 Cbreak 1n 
C_C3         0 N004751 Cbreak 1n 
L_L1         N00123 N00119 Lbreak 10uH 
L_L2         N00119 N004751 Lbreak 10uH 

**** RESUMING sim1.cir ****
.END

**** 01/19/20 13:25:35 ******* PSpice Lite (March 2016) ******* ID# 10813 ****

 ** Profile: "SCHEMATIC1-sim1"  [ c:\users\lfbarrag\documents\slugsat\github\schematics_pcbs\lt\29.4mhz low-pass filter\29mhz-lpf-psp


 ****     Capacitor MODEL PARAMETERS


******************************************************************************




               Cbreak          
           C    1            


**** 01/19/20 13:25:35 ******* PSpice Lite (March 2016) ******* ID# 10813 ****

 ** Profile: "SCHEMATIC1-sim1"  [ c:\users\lfbarrag\documents\slugsat\github\schematics_pcbs\lt\29.4mhz low-pass filter\29mhz-lpf-psp


 ****     Inductor MODEL PARAMETERS


******************************************************************************




               Lbreak          
           L    1            


**** 01/19/20 13:25:35 ******* PSpice Lite (March 2016) ******* ID# 10813 ****

 ** Profile: "SCHEMATIC1-sim1"  [ c:\users\lfbarrag\documents\slugsat\github\schematics_pcbs\lt\29.4mhz low-pass filter\29mhz-lpf-psp


 ****     SMALL SIGNAL BIAS SOLUTION       TEMPERATURE =   27.000 DEG C


******************************************************************************



 NODE   VOLTAGE     NODE   VOLTAGE     NODE   VOLTAGE     NODE   VOLTAGE


(N00119)    0.0000 (N00123)    0.0000 (N004751)    0.0000                   




    VOLTAGE SOURCE CURRENTS
    NAME         CURRENT

    V_V1         0.000E+00

    TOTAL POWER DISSIPATION   0.00E+00  WATTS



          JOB CONCLUDED

**** 01/19/20 13:25:35 ******* PSpice Lite (March 2016) ******* ID# 10813 ****

 ** Profile: "SCHEMATIC1-sim1"  [ c:\users\lfbarrag\documents\slugsat\github\schematics_pcbs\lt\29.4mhz low-pass filter\29mhz-lpf-psp


 ****     JOB STATISTICS SUMMARY


******************************************************************************



  Total job time (using Solver 1)   =         .06
