Circuit: * C:\Users\sacmitch\Desktop\Image Reject Filter v4\Filter v4 - v3 tolerance tests w fixed inductors.asc


Date: Mon Apr 15 11:05:32 2019
Total elapsed time: 0.034 seconds.

tnom = 27
temp = 27
method = trap
totiter = 0
traniter = 0
tranpoints = 0
accept = 0
rejected = 0
matrix size = 5
fillins = 1
solver = Normal

