Circuit: * C:\Users\sacmitch\Desktop\Image Reject Filter v1\Filter v1.asc


Date: Sun Apr 14 16:52:28 2019
Total elapsed time: 0.018 seconds.

tnom = 27
temp = 27
method = trap
totiter = 0
traniter = 0
tranpoints = 0
accept = 0
rejected = 0
matrix size = 5
fillins = 1
solver = Normal

